1FIN_ligand.pdb
 OpenBabel10262211483D

 31 33  0  0  1  0  0  0  0  0999 V2000
  -15.6010  203.6220  121.8820 P   0  0  0  0  0  0  0  0  0  0  0  0
  -16.3290  202.7240  120.8980 O   0  0  0  0  0  0  0  0  0  0  0  0
  -16.4240  204.2130  123.0140 O   0  0  0  0  0  0  0  0  0  0  0  0
  -14.3200  202.9390  122.3300 O   0  0  0  0  0  0  0  0  0  0  0  0
  -13.8320  205.6400  120.2660 P   0  0  1  0  0  0  0  0  0  0  0  0
  -14.4110  207.0280  120.3870 O   0  0  0  0  0  0  0  0  0  0  0  0
  -12.4430  205.2440  120.7040 O   0  0  0  0  0  0  0  0  0  0  0  0
  -15.1880  204.9680  120.9640 O   0  0  0  0  0  0  0  0  0  0  0  0
  -13.6850  203.6030  118.2990 P   0  0  1  0  0  0  0  0  0  0  0  0
  -14.2650  202.3840  118.9580 O   0  0  0  0  0  0  0  0  0  0  0  0
  -14.3650  204.0800  117.0410 O   0  0  0  0  0  0  0  0  0  0  0  0
  -13.8870  205.1930  118.6870 O   0  0  0  0  0  0  0  0  0  0  0  0
  -12.1840  203.4190  118.1110 O   0  0  0  0  0  0  0  0  0  0  0  0
  -11.0610  204.3330  118.2240 C   0  0  0  0  0  0  0  0  0  0  0  0
  -10.6920  205.1810  116.9900 C   0  0  1  0  0  0  0  0  0  0  0  0
  -10.9670  204.6980  115.6290 O   0  0  0  0  0  0  0  0  0  0  0  0
  -11.2580  206.6020  116.9350 C   0  0  1  0  0  0  0  0  0  0  0  0
  -10.8250  207.4390  118.0140 O   0  0  0  0  0  0  0  0  0  0  0  0
  -10.7790  207.0860  115.5610 C   0  0  1  0  0  0  0  0  0  0  0  0
   -9.5840  207.8550  115.5310 O   0  0  0  0  0  0  0  0  0  0  0  0
  -10.6030  205.7890  114.7700 C   0  0  2  0  0  0  0  0  0  0  0  0
  -11.3990  205.9780  113.5620 N   0  0  0  0  0  0  0  0  0  0  0  0
  -12.7610  205.8560  113.5100 C   0  0  0  0  0  0  0  0  0  0  0  0
  -13.2870  206.1690  112.3370 N   0  0  0  0  0  0  0  0  0  0  0  0
  -12.1920  206.5740  111.5780 C   0  0  0  0  0  0  0  0  0  0  0  0
  -12.0910  207.0150  110.2370 C   0  0  0  0  0  0  0  0  0  0  0  0
  -13.1660  207.1240  109.4420 N   0  0  0  0  0  0  0  0  0  0  0  0
  -10.8510  207.3470  109.7880 N   0  0  0  0  0  0  0  0  0  0  0  0
   -9.8020  207.2340  110.6250 C   0  0  0  0  0  0  0  0  0  0  0  0
   -9.7770  206.8340  111.9020 N   0  0  0  0  0  0  0  0  0  0  0  0
  -11.0180  206.5030  112.3310 C   0  0  0  0  0  0  0  0  0  0  0  0
  1  2  2  0  0  0  0
  1  3  1  0  0  0  0
  1  4  1  0  0  0  0
  1  8  1  0  0  0  0
  5  6  2  1  0  0  0
  5  7  1  0  0  0  0
  5  8  1  0  0  0  0
  5 12  1  0  0  0  0
  9 10  2  1  0  0  0
  9 11  1  0  0  0  0
  9 12  1  0  0  0  0
  9 13  1  0  0  0  0
 13 14  1  0  0  0  0
 15 14  1  1  0  0  0
 15 16  1  0  0  0  0
 15 17  1  0  0  0  0
 16 21  1  0  0  0  0
 17 18  1  1  0  0  0
 17 19  1  0  0  0  0
 19 20  1  1  0  0  0
 19 21  1  0  0  0  0
 21 22  1  6  0  0  0
 22 23  1  0  0  0  0
 22 31  1  0  0  0  0
 23 24  2  0  0  0  0
 24 25  1  0  0  0  0
 25 26  2  0  0  0  0
 25 31  1  0  0  0  0
 26 27  1  0  0  0  0
 26 28  1  0  0  0  0
 28 29  2  0  0  0  0
 29 30  1  0  0  0  0
 30 31  2  0  0  0  0
M  END
$$$$
